* SPICE netlist generated by Yosys 0.9 (git sha1 1979e0b)

.SUBCKT _paramod_seq_multiplier_DATA_W_32 clk rst_n start a_0_ a_1_ a_2_ a_3_ a_4_ a_5_ a_6_ a_7_ a_8_ a_9_ a_10_ a_11_ a_12_ a_13_ a_14_ a_15_ a_16_ a_17_ a_18_ a_19_ a_20_ a_21_ a_22_ a_23_ a_24_ a_25_ a_26_ a_27_ a_28_ a_29_ a_30_ a_31_ b_0_ b_1_ b_2_ b_3_ b_4_ b_5_ b_6_ b_7_ b_8_ b_9_ b_10_ b_11_ b_12_ b_13_ b_14_ b_15_ b_16_ b_17_ b_18_ b_19_ b_20_ b_21_ b_22_ b_23_ b_24_ b_25_ b_26_ b_27_ b_28_ b_29_ b_30_ b_31_ result_0_ result_1_ result_2_ result_3_ result_4_ result_5_ result_6_ result_7_ result_8_ result_9_ result_10_ result_11_ result_12_ result_13_ result_14_ result_15_ result_16_ result_17_ result_18_ result_19_ result_20_ result_21_ result_22_ result_23_ result_24_ result_25_ result_26_ result_27_ result_28_ result_29_ result_30_ result_31_ done busy
X0 count_5_ 1 INV_X1
X1 count_2_ 2 INV_X1
X2 count_4_ 3 INV_X1
X3 acc_24_ 4 INV_X1
X4 acc_28_ 5 INV_X1
X5 acc_30_ 6 INV_X1
X6 done 7 INV_X1
X7 state 8 INV_X1
X8 9 10 INV_X1
X9 count_0_ count_1_ 11 NAND2_X1
X10 2 11 12 NOR2_X1
X11 count_3_ count_4_ 12 13 NAND3_X1
X12 count_5_ 13 14 NOR2_X1
X13 start 9 15 AND2_X1
X14 start 9 16 NAND2_X1
X15 16 14 8 17 OAI21_X1
X16 state 14 18 NAND2_X1
X17 start 10 19 NOR2_X1
X18 19 13 state 20 AOI21_X1
X19 18 20 1 21 OAI21_X1
X20 count_3_ state 12 22 NAND3_X1
X21 20 22 3 23 AOI21_X1
X22 count_3_ 19 24 NAND2_X1
X23 8 12 count_3_ 25 AOI21_X1
X24 25 12 count_3_ 26 OAI21_X1
X25 24 26 27 NAND2_X1
X26 count_2_ count_1_ count_0_ 28 AOI21_X1
X27 start 2 10 12 28 8 29 OAI33_X1
X28 count_0_ count_1_ 30 NOR2_X1
X29 state 11 19 count_1_ 31 AOI22_X1
X30 30 31 32 NOR2_X1
X31 state 19 count_0_ 33 MUX2_X1
X32 acc_0_ mp_0_ mc_0_ 34 AOI21_X1
X33 acc_0_ mc_0_ 35 AND2_X1
X34 34 35 mp_0_ 36 AOI21_X1
X35 acc_0_ 19 36 state 37 AOI22_X1
X36 37 38 INV_X1
X37 acc_1_ mc_1_ 39 AND2_X1
X38 acc_1_ mc_1_ 40 XOR2_X1
X39 35 40 41 XNOR2_X1
X40 mp_0_ acc_1_ 42 NOR2_X1
X41 42 41 mp_0_ 43 AOI21_X1
X42 acc_1_ 19 43 state 44 AOI22_X1
X43 44 45 INV_X1
X44 39 40 35 46 AOI21_X1
X45 acc_2_ mc_2_ 47 NAND2_X1
X46 acc_2_ mc_2_ 48 XNOR2_X1
X47 46 48 49 XOR2_X1
X48 acc_2_ 49 mp_0_ 50 MUX2_X1
X49 acc_2_ 19 50 state 51 AOI22_X1
X50 51 52 INV_X1
X51 47 48 46 53 OAI21_X1
X52 acc_3_ mc_3_ 54 NAND2_X1
X53 54 55 INV_X1
X54 acc_3_ mc_3_ 56 OR2_X1
X55 54 56 57 AND2_X1
X56 53 57 58 XNOR2_X1
X57 mp_0_ acc_3_ 59 NOR2_X1
X58 59 58 mp_0_ 60 AOI21_X1
X59 acc_3_ 19 60 state 61 AOI22_X1
X60 61 62 INV_X1
X61 55 56 53 63 AOI21_X1
X62 acc_4_ mc_4_ 64 NAND2_X1
X63 acc_4_ mc_4_ 65 XNOR2_X1
X64 63 65 66 XOR2_X1
X65 acc_4_ 66 mp_0_ 67 MUX2_X1
X66 acc_4_ 19 67 state 68 AOI22_X1
X67 68 69 INV_X1
X68 64 65 63 70 OAI21_X1
X69 acc_5_ mc_5_ 71 NAND2_X1
X70 71 72 INV_X1
X71 acc_5_ mc_5_ 73 XOR2_X1
X72 70 73 74 XNOR2_X1
X73 mp_0_ acc_5_ 75 NOR2_X1
X74 75 74 mp_0_ 76 AOI21_X1
X75 acc_5_ 19 76 state 77 AOI22_X1
X76 77 78 INV_X1
X77 72 73 70 79 AOI21_X1
X78 acc_6_ mc_6_ 80 NAND2_X1
X79 acc_6_ mc_6_ 81 NOR2_X1
X80 acc_6_ mc_6_ 82 XOR2_X1
X81 79 82 83 XNOR2_X1
X82 acc_6_ 83 mp_0_ 84 MUX2_X1
X83 acc_6_ 19 84 state 85 AOI22_X1
X84 85 86 INV_X1
X85 80 81 79 87 OAI21_X1
X86 acc_7_ mc_7_ 88 NAND2_X1
X87 88 89 INV_X1
X88 acc_7_ mc_7_ 90 OR2_X1
X89 88 90 91 NAND2_X1
X90 87 91 92 XNOR2_X1
X91 acc_7_ 92 mp_0_ 93 MUX2_X1
X92 acc_7_ 19 93 state 94 AOI22_X1
X93 94 95 INV_X1
X94 acc_8_ mc_8_ 96 NAND2_X1
X95 acc_8_ mc_8_ 97 XNOR2_X1
X96 97 98 INV_X1
X97 90 89 87 99 OAI21_X1
X98 90 98 87 89 100 OAI211_X1
X99 98 99 101 XNOR2_X1
X100 acc_8_ 101 mp_0_ 102 MUX2_X1
X101 acc_8_ 19 102 state 103 AOI22_X1
X102 103 104 INV_X1
X103 mp_0_ acc_9_ 105 NOR2_X1
X104 96 100 106 NAND2_X1
X105 acc_9_ mc_9_ 107 NAND2_X1
X106 acc_9_ mc_9_ 108 OR2_X1
X107 107 108 109 AND2_X1
X108 106 109 110 XNOR2_X1
X109 105 110 mp_0_ 111 AOI21_X1
X110 acc_9_ 19 111 state 112 AOI22_X1
X111 112 113 INV_X1
X112 acc_10_ mc_10_ 114 NAND2_X1
X113 acc_10_ mc_10_ 115 XOR2_X1
X114 96 100 107 116 NAND3_X1
X115 108 116 117 NAND2_X1
X116 108 115 116 118 NAND3_X1
X117 115 117 119 XNOR2_X1
X118 acc_10_ 119 mp_0_ 120 MUX2_X1
X119 acc_10_ 19 120 state 121 AOI22_X1
X120 121 122 INV_X1
X121 114 118 123 NAND2_X1
X122 acc_11_ mc_11_ 124 NAND2_X1
X123 acc_11_ mc_11_ 125 XNOR2_X1
X124 123 125 126 XNOR2_X1
X125 acc_11_ 126 mp_0_ 127 MUX2_X1
X126 acc_11_ 19 127 state 128 AOI22_X1
X127 128 129 INV_X1
X128 acc_12_ mc_12_ 130 NAND2_X1
X129 acc_12_ mc_12_ 131 XOR2_X1
X130 114 118 124 132 NAND3_X1
X131 132 mc_11_ acc_11_ 133 OAI21_X1
X132 131 132 acc_11_ mc_11_ 134 OAI211_X1
X133 131 133 135 XNOR2_X1
X134 acc_12_ 135 mp_0_ 136 MUX2_X1
X135 acc_12_ 19 136 state 137 AOI22_X1
X136 137 138 INV_X1
X137 130 134 139 NAND2_X1
X138 acc_13_ mc_13_ 140 NAND2_X1
X139 acc_13_ mc_13_ 141 OR2_X1
X140 140 141 142 AND2_X1
X141 139 142 143 XNOR2_X1
X142 mp_0_ acc_13_ 144 NOR2_X1
X143 144 143 mp_0_ 145 AOI21_X1
X144 acc_13_ 19 145 state 146 AOI22_X1
X145 146 147 INV_X1
X146 acc_14_ mc_14_ 148 NAND2_X1
X147 acc_14_ mc_14_ 149 XOR2_X1
X148 130 134 140 150 NAND3_X1
X149 141 150 151 NAND2_X1
X150 141 149 150 152 NAND3_X1
X151 149 151 153 XNOR2_X1
X152 acc_14_ 153 mp_0_ 154 MUX2_X1
X153 acc_14_ 19 154 state 155 AOI22_X1
X154 155 156 INV_X1
X155 148 152 157 NAND2_X1
X156 acc_15_ mc_15_ 158 NAND2_X1
X157 acc_15_ mc_15_ 159 XNOR2_X1
X158 157 159 160 XNOR2_X1
X159 acc_15_ 160 mp_0_ 161 MUX2_X1
X160 acc_15_ 19 161 state 162 AOI22_X1
X161 162 163 INV_X1
X162 acc_16_ mc_16_ 164 NAND2_X1
X163 acc_16_ mc_16_ 165 XOR2_X1
X164 148 152 158 166 NAND3_X1
X165 166 mc_15_ acc_15_ 167 OAI21_X1
X166 165 166 acc_15_ mc_15_ 168 OAI211_X1
X167 165 167 169 XNOR2_X1
X168 acc_16_ 169 mp_0_ 170 MUX2_X1
X169 acc_16_ 19 170 state 171 AOI22_X1
X170 171 172 INV_X1
X171 164 168 173 NAND2_X1
X172 acc_17_ mc_17_ 174 NAND2_X1
X173 acc_17_ mc_17_ 175 OR2_X1
X174 174 175 176 NAND2_X1
X175 173 176 177 XNOR2_X1
X176 acc_17_ 177 mp_0_ 178 MUX2_X1
X177 acc_17_ 19 178 state 179 AOI22_X1
X178 179 180 INV_X1
X179 acc_18_ mc_18_ 181 NAND2_X1
X180 acc_18_ mc_18_ 182 XOR2_X1
X181 164 168 174 183 NAND3_X1
X182 175 183 184 NAND2_X1
X183 175 182 183 185 NAND3_X1
X184 182 184 186 XNOR2_X1
X185 acc_18_ 186 mp_0_ 187 MUX2_X1
X186 acc_18_ 19 187 state 188 AOI22_X1
X187 188 189 INV_X1
X188 181 185 190 NAND2_X1
X189 acc_19_ mc_19_ 191 NAND2_X1
X190 acc_19_ mc_19_ 192 XNOR2_X1
X191 190 192 193 XNOR2_X1
X192 acc_19_ 193 mp_0_ 194 MUX2_X1
X193 acc_19_ 19 194 state 195 AOI22_X1
X194 195 196 INV_X1
X195 acc_20_ mc_20_ 197 NAND2_X1
X196 acc_20_ mc_20_ 198 XOR2_X1
X197 181 185 191 199 NAND3_X1
X198 199 mc_19_ acc_19_ 200 OAI21_X1
X199 198 199 acc_19_ mc_19_ 201 OAI211_X1
X200 198 200 202 XNOR2_X1
X201 acc_20_ 202 mp_0_ 203 MUX2_X1
X202 acc_20_ 19 203 state 204 AOI22_X1
X203 204 205 INV_X1
X204 197 201 206 NAND2_X1
X205 acc_21_ mc_21_ 207 NAND2_X1
X206 acc_21_ mc_21_ 208 OR2_X1
X207 207 208 209 NAND2_X1
X208 206 209 210 XNOR2_X1
X209 acc_21_ 210 mp_0_ 211 MUX2_X1
X210 acc_21_ 19 211 state 212 AOI22_X1
X211 212 213 INV_X1
X212 acc_22_ mc_22_ 214 NAND2_X1
X213 acc_22_ mc_22_ 215 XOR2_X1
X214 197 201 207 216 NAND3_X1
X215 208 216 217 NAND2_X1
X216 208 215 216 218 NAND3_X1
X217 215 217 219 XNOR2_X1
X218 acc_22_ 219 mp_0_ 220 MUX2_X1
X219 acc_22_ 19 220 state 221 AOI22_X1
X220 221 222 INV_X1
X221 mp_0_ acc_23_ 223 NOR2_X1
X222 214 218 224 NAND2_X1
X223 acc_23_ mc_23_ 225 NAND2_X1
X224 acc_23_ mc_23_ 226 OR2_X1
X225 225 226 227 AND2_X1
X226 224 227 228 XNOR2_X1
X227 223 228 mp_0_ 229 AOI21_X1
X228 acc_23_ 19 229 state 230 AOI22_X1
X229 230 231 INV_X1
X230 acc_24_ mc_24_ 232 XOR2_X1
X231 214 218 225 233 NAND3_X1
X232 226 233 234 AND2_X1
X233 226 232 233 235 AND3_X1
X234 mp_0_ 232 234 236 OAI21_X1
X235 mp_0_ 4 235 236 237 OAI22_X1
X236 acc_24_ 19 237 state 238 AOI22_X1
X237 238 239 INV_X1
X238 235 mc_24_ acc_24_ 240 AOI21_X1
X239 acc_25_ mc_25_ 241 NAND2_X1
X240 acc_25_ mc_25_ 242 NOR2_X1
X241 acc_25_ mc_25_ 243 XOR2_X1
X242 240 243 244 XNOR2_X1
X243 acc_25_ 244 mp_0_ 245 MUX2_X1
X244 acc_25_ 19 245 state 246 AOI22_X1
X245 246 247 INV_X1
X246 acc_26_ mc_26_ 248 AND2_X1
X247 acc_26_ mc_26_ 249 XOR2_X1
X248 242 241 240 250 AOI21_X1
X249 249 250 251 XOR2_X1
X250 acc_26_ 251 mp_0_ 252 MUX2_X1
X251 acc_26_ 19 252 state 253 AOI22_X1
X252 253 254 INV_X1
X253 248 249 250 255 AOI21_X1
X254 acc_27_ mc_27_ 256 NAND2_X1
X255 acc_27_ mc_27_ 257 NOR2_X1
X256 acc_27_ mc_27_ 258 XOR2_X1
X257 255 258 259 XNOR2_X1
X258 acc_27_ 259 mp_0_ 260 MUX2_X1
X259 acc_27_ 19 260 state 261 AOI22_X1
X260 261 262 INV_X1
X261 acc_28_ mc_28_ 263 AND2_X1
X262 acc_28_ mc_28_ 264 XOR2_X1
X263 264 265 INV_X1
X264 257 256 255 266 AOI21_X1
X265 257 265 255 256 267 AOI211_X1
X266 mp_0_ 264 266 268 OAI21_X1
X267 mp_0_ 5 267 268 269 OAI22_X1
X268 acc_28_ 19 269 state 270 AOI22_X1
X269 270 271 INV_X1
X270 263 267 272 NOR2_X1
X271 acc_29_ mc_29_ 273 NAND2_X1
X272 acc_29_ mc_29_ 274 XNOR2_X1
X273 274 275 INV_X1
X274 275 267 263 276 OAI21_X1
X275 272 275 277 XNOR2_X1
X276 acc_29_ 277 mp_0_ 278 MUX2_X1
X277 acc_29_ 19 278 state 279 AOI22_X1
X278 279 280 INV_X1
X279 acc_30_ mc_30_ 281 AND2_X1
X280 acc_30_ mc_30_ 282 XNOR2_X1
X281 282 276 273 283 AOI21_X1
X282 273 276 282 284 NAND3_X1
X283 mp_0_ 284 285 NAND2_X1
X284 mp_0_ 6 283 285 286 OAI22_X1
X285 acc_30_ 19 286 state 287 AOI22_X1
X286 287 288 INV_X1
X287 mc_31_ 281 283 289 OR3_X1
X288 mc_31_ 281 283 290 OAI21_X1
X289 mp_0_ 289 290 291 NAND3_X1
X290 acc_31_ 291 292 XOR2_X1
X291 acc_31_ 19 293 NAND2_X1
X292 293 292 8 294 OAI21_X1
X293 mp_1_ state 15 b_0_ mp_0_ 19 295 AOI222_X1
X294 295 296 INV_X1
X295 mp_2_ state 15 b_1_ mp_1_ 19 297 AOI222_X1
X296 297 298 INV_X1
X297 mp_3_ state 15 b_2_ mp_2_ 19 299 AOI222_X1
X298 299 300 INV_X1
X299 mp_4_ state 15 b_3_ mp_3_ 19 301 AOI222_X1
X300 301 302 INV_X1
X301 mp_5_ state 15 b_4_ mp_4_ 19 303 AOI222_X1
X302 303 304 INV_X1
X303 mp_6_ state 15 b_5_ mp_5_ 19 305 AOI222_X1
X304 305 306 INV_X1
X305 mp_7_ state 15 b_6_ mp_6_ 19 307 AOI222_X1
X306 307 308 INV_X1
X307 mp_8_ state 15 b_7_ mp_7_ 19 309 AOI222_X1
X308 309 310 INV_X1
X309 mp_9_ state 15 b_8_ mp_8_ 19 311 AOI222_X1
X310 311 312 INV_X1
X311 mp_10_ state 15 b_9_ mp_9_ 19 313 AOI222_X1
X312 313 314 INV_X1
X313 mp_11_ state 15 b_10_ mp_10_ 19 315 AOI222_X1
X314 315 316 INV_X1
X315 mp_12_ state 15 b_11_ mp_11_ 19 317 AOI222_X1
X316 317 318 INV_X1
X317 mp_13_ state 15 b_12_ mp_12_ 19 319 AOI222_X1
X318 319 320 INV_X1
X319 mp_14_ state 15 b_13_ mp_13_ 19 321 AOI222_X1
X320 321 322 INV_X1
X321 mp_15_ state 15 b_14_ mp_14_ 19 323 AOI222_X1
X322 323 324 INV_X1
X323 mp_16_ state 15 b_15_ mp_15_ 19 325 AOI222_X1
X324 325 326 INV_X1
X325 mp_17_ state 15 b_16_ mp_16_ 19 327 AOI222_X1
X326 327 328 INV_X1
X327 mp_18_ state 15 b_17_ mp_17_ 19 329 AOI222_X1
X328 329 330 INV_X1
X329 mp_19_ state 15 b_18_ mp_18_ 19 331 AOI222_X1
X330 331 332 INV_X1
X331 mp_20_ state 15 b_19_ mp_19_ 19 333 AOI222_X1
X332 333 334 INV_X1
X333 mp_21_ state 15 b_20_ mp_20_ 19 335 AOI222_X1
X334 335 336 INV_X1
X335 mp_22_ state 15 b_21_ mp_21_ 19 337 AOI222_X1
X336 337 338 INV_X1
X337 mp_23_ state 15 b_22_ mp_22_ 19 339 AOI222_X1
X338 339 340 INV_X1
X339 mp_24_ state 15 b_23_ mp_23_ 19 341 AOI222_X1
X340 341 342 INV_X1
X341 mp_25_ state 15 b_24_ mp_24_ 19 343 AOI222_X1
X342 343 344 INV_X1
X343 mp_26_ state 15 b_25_ mp_25_ 19 345 AOI222_X1
X344 345 346 INV_X1
X345 mp_27_ state 15 b_26_ mp_26_ 19 347 AOI222_X1
X346 347 348 INV_X1
X347 mp_28_ state 15 b_27_ mp_27_ 19 349 AOI222_X1
X348 349 350 INV_X1
X349 mp_29_ state 15 b_28_ mp_28_ 19 351 AOI222_X1
X350 351 352 INV_X1
X351 mp_30_ state 15 b_29_ mp_29_ 19 353 AOI222_X1
X352 353 354 INV_X1
X353 mp_31_ state 15 b_30_ mp_30_ 19 355 AOI222_X1
X354 355 356 INV_X1
X355 mc_0_ state 15 a_1_ 19 mc_1_ 357 AOI222_X1
X356 357 358 INV_X1
X357 mc_1_ state 15 a_2_ 19 mc_2_ 359 AOI222_X1
X358 359 360 INV_X1
X359 mc_2_ state 15 a_3_ 19 mc_3_ 361 AOI222_X1
X360 361 362 INV_X1
X361 mc_3_ state 15 a_4_ 19 mc_4_ 363 AOI222_X1
X362 363 364 INV_X1
X363 mc_4_ state 15 a_5_ 19 mc_5_ 365 AOI222_X1
X364 365 366 INV_X1
X365 mc_5_ state 15 a_6_ 19 mc_6_ 367 AOI222_X1
X366 367 368 INV_X1
X367 mc_6_ state 15 a_7_ 19 mc_7_ 369 AOI222_X1
X368 369 370 INV_X1
X369 mc_7_ state 15 a_8_ 19 mc_8_ 371 AOI222_X1
X370 371 372 INV_X1
X371 mc_8_ state 15 a_9_ 19 mc_9_ 373 AOI222_X1
X372 373 374 INV_X1
X373 mc_9_ state 15 a_10_ 19 mc_10_ 375 AOI222_X1
X374 375 376 INV_X1
X375 mc_10_ state 15 a_11_ 19 mc_11_ 377 AOI222_X1
X376 377 378 INV_X1
X377 mc_11_ state 15 a_12_ 19 mc_12_ 379 AOI222_X1
X378 379 380 INV_X1
X379 mc_12_ state 15 a_13_ 19 mc_13_ 381 AOI222_X1
X380 381 382 INV_X1
X381 mc_13_ state 15 a_14_ 19 mc_14_ 383 AOI222_X1
X382 383 384 INV_X1
X383 mc_14_ state 15 a_15_ 19 mc_15_ 385 AOI222_X1
X384 385 386 INV_X1
X385 mc_15_ state 15 a_16_ 19 mc_16_ 387 AOI222_X1
X386 387 388 INV_X1
X387 mc_16_ state 15 a_17_ 19 mc_17_ 389 AOI222_X1
X388 389 390 INV_X1
X389 mc_17_ state 15 a_18_ 19 mc_18_ 391 AOI222_X1
X390 391 392 INV_X1
X391 mc_18_ state 15 a_19_ 19 mc_19_ 393 AOI222_X1
X392 393 394 INV_X1
X393 mc_19_ state 15 a_20_ 19 mc_20_ 395 AOI222_X1
X394 395 396 INV_X1
X395 mc_20_ state 15 a_21_ 19 mc_21_ 397 AOI222_X1
X396 397 398 INV_X1
X397 mc_21_ state 15 a_22_ 19 mc_22_ 399 AOI222_X1
X398 399 400 INV_X1
X399 mc_22_ state 15 a_23_ 19 mc_23_ 401 AOI222_X1
X400 401 402 INV_X1
X401 mc_23_ state 15 a_24_ 19 mc_24_ 403 AOI222_X1
X402 403 404 INV_X1
X403 mc_24_ state 15 a_25_ 19 mc_25_ 405 AOI222_X1
X404 405 406 INV_X1
X405 mc_25_ state 15 a_26_ 19 mc_26_ 407 AOI222_X1
X406 407 408 INV_X1
X407 mc_26_ state 15 a_27_ 19 mc_27_ 409 AOI222_X1
X408 409 410 INV_X1
X409 mc_27_ state 15 a_28_ 19 mc_28_ 411 AOI222_X1
X410 411 412 INV_X1
X411 mc_28_ state 15 a_29_ 19 mc_29_ 413 AOI222_X1
X412 413 414 INV_X1
X413 mc_29_ state 15 a_30_ 19 mc_30_ 415 AOI222_X1
X414 415 416 INV_X1
X415 mc_30_ state 15 a_31_ 19 mc_31_ 417 AOI222_X1
X416 417 418 INV_X1
X417 36 result_0_ 18 419 MUX2_X1
X418 43 result_1_ 18 420 MUX2_X1
X419 50 result_2_ 18 421 MUX2_X1
X420 60 result_3_ 18 422 MUX2_X1
X421 67 result_4_ 18 423 MUX2_X1
X422 76 result_5_ 18 424 MUX2_X1
X423 84 result_6_ 18 425 MUX2_X1
X424 93 result_7_ 18 426 MUX2_X1
X425 102 result_8_ 18 427 MUX2_X1
X426 111 result_9_ 18 428 MUX2_X1
X427 120 result_10_ 18 429 MUX2_X1
X428 127 result_11_ 18 430 MUX2_X1
X429 136 result_12_ 18 431 MUX2_X1
X430 145 result_13_ 18 432 MUX2_X1
X431 154 result_14_ 18 433 MUX2_X1
X432 161 result_15_ 18 434 MUX2_X1
X433 170 result_16_ 18 435 MUX2_X1
X434 178 result_17_ 18 436 MUX2_X1
X435 187 result_18_ 18 437 MUX2_X1
X436 194 result_19_ 18 438 MUX2_X1
X437 203 result_20_ 18 439 MUX2_X1
X438 211 result_21_ 18 440 MUX2_X1
X439 220 result_22_ 18 441 MUX2_X1
X440 229 result_23_ 18 442 MUX2_X1
X441 237 result_24_ 18 443 MUX2_X1
X442 245 result_25_ 18 444 MUX2_X1
X443 252 result_26_ 18 445 MUX2_X1
X444 260 result_27_ 18 446 MUX2_X1
X445 269 result_28_ 18 447 MUX2_X1
X446 278 result_29_ 18 448 MUX2_X1
X447 286 result_30_ 18 449 MUX2_X1
X448 result_31_ 18 450 NAND2_X1
X449 450 292 18 451 OAI21_X1
X450 b_31_ 15 19 mp_31_ 452 AOI22_X1
X451 452 453 INV_X1
X452 a_0_ 15 19 mc_0_ 454 AOI22_X1
X453 454 455 INV_X1
X454 18 8 7 456 OAI21_X1
X455 clk 419 result_0_ 457 rst_n DFFR_X1
X456 clk 420 result_1_ 458 rst_n DFFR_X1
X457 clk 421 result_2_ 459 rst_n DFFR_X1
X458 clk 422 result_3_ 460 rst_n DFFR_X1
X459 clk 423 result_4_ 461 rst_n DFFR_X1
X460 clk 424 result_5_ 462 rst_n DFFR_X1
X461 clk 425 result_6_ 463 rst_n DFFR_X1
X462 clk 426 result_7_ 464 rst_n DFFR_X1
X463 clk 427 result_8_ 465 rst_n DFFR_X1
X464 clk 428 result_9_ 466 rst_n DFFR_X1
X465 clk 429 result_10_ 467 rst_n DFFR_X1
X466 clk 430 result_11_ 468 rst_n DFFR_X1
X467 clk 431 result_12_ 469 rst_n DFFR_X1
X468 clk 432 result_13_ 470 rst_n DFFR_X1
X469 clk 433 result_14_ 471 rst_n DFFR_X1
X470 clk 434 result_15_ 472 rst_n DFFR_X1
X471 clk 435 result_16_ 473 rst_n DFFR_X1
X472 clk 436 result_17_ 474 rst_n DFFR_X1
X473 clk 437 result_18_ 475 rst_n DFFR_X1
X474 clk 438 result_19_ 476 rst_n DFFR_X1
X475 clk 439 result_20_ 477 rst_n DFFR_X1
X476 clk 440 result_21_ 478 rst_n DFFR_X1
X477 clk 441 result_22_ 479 rst_n DFFR_X1
X478 clk 442 result_23_ 480 rst_n DFFR_X1
X479 clk 443 result_24_ 481 rst_n DFFR_X1
X480 clk 444 result_25_ 482 rst_n DFFR_X1
X481 clk 445 result_26_ 483 rst_n DFFR_X1
X482 clk 446 result_27_ 484 rst_n DFFR_X1
X483 clk 447 result_28_ 485 rst_n DFFR_X1
X484 clk 448 result_29_ 486 rst_n DFFR_X1
X485 clk 449 result_30_ 487 rst_n DFFR_X1
X486 clk 451 result_31_ 488 rst_n DFFR_X1
X487 clk 456 done 489 rst_n DFFR_X1
X488 clk 455 mc_0_ 490 rst_n DFFR_X1
X489 clk 358 mc_1_ 491 rst_n DFFR_X1
X490 clk 360 mc_2_ 492 rst_n DFFR_X1
X491 clk 362 mc_3_ 493 rst_n DFFR_X1
X492 clk 364 mc_4_ 494 rst_n DFFR_X1
X493 clk 366 mc_5_ 495 rst_n DFFR_X1
X494 clk 368 mc_6_ 496 rst_n DFFR_X1
X495 clk 370 mc_7_ 497 rst_n DFFR_X1
X496 clk 372 mc_8_ 498 rst_n DFFR_X1
X497 clk 374 mc_9_ 499 rst_n DFFR_X1
X498 clk 376 mc_10_ 500 rst_n DFFR_X1
X499 clk 378 mc_11_ 501 rst_n DFFR_X1
X500 clk 380 mc_12_ 502 rst_n DFFR_X1
X501 clk 382 mc_13_ 503 rst_n DFFR_X1
X502 clk 384 mc_14_ 504 rst_n DFFR_X1
X503 clk 386 mc_15_ 505 rst_n DFFR_X1
X504 clk 388 mc_16_ 506 rst_n DFFR_X1
X505 clk 390 mc_17_ 507 rst_n DFFR_X1
X506 clk 392 mc_18_ 508 rst_n DFFR_X1
X507 clk 394 mc_19_ 509 rst_n DFFR_X1
X508 clk 396 mc_20_ 510 rst_n DFFR_X1
X509 clk 398 mc_21_ 511 rst_n DFFR_X1
X510 clk 400 mc_22_ 512 rst_n DFFR_X1
X511 clk 402 mc_23_ 513 rst_n DFFR_X1
X512 clk 404 mc_24_ 514 rst_n DFFR_X1
X513 clk 406 mc_25_ 515 rst_n DFFR_X1
X514 clk 408 mc_26_ 516 rst_n DFFR_X1
X515 clk 410 mc_27_ 517 rst_n DFFR_X1
X516 clk 412 mc_28_ 518 rst_n DFFR_X1
X517 clk 414 mc_29_ 519 rst_n DFFR_X1
X518 clk 416 mc_30_ 520 rst_n DFFR_X1
X519 clk 418 mc_31_ 521 rst_n DFFR_X1
X520 clk 296 mp_0_ 522 rst_n DFFR_X1
X521 clk 298 mp_1_ 523 rst_n DFFR_X1
X522 clk 300 mp_2_ 524 rst_n DFFR_X1
X523 clk 302 mp_3_ 525 rst_n DFFR_X1
X524 clk 304 mp_4_ 526 rst_n DFFR_X1
X525 clk 306 mp_5_ 527 rst_n DFFR_X1
X526 clk 308 mp_6_ 528 rst_n DFFR_X1
X527 clk 310 mp_7_ 529 rst_n DFFR_X1
X528 clk 312 mp_8_ 530 rst_n DFFR_X1
X529 clk 314 mp_9_ 531 rst_n DFFR_X1
X530 clk 316 mp_10_ 532 rst_n DFFR_X1
X531 clk 318 mp_11_ 533 rst_n DFFR_X1
X532 clk 320 mp_12_ 534 rst_n DFFR_X1
X533 clk 322 mp_13_ 535 rst_n DFFR_X1
X534 clk 324 mp_14_ 536 rst_n DFFR_X1
X535 clk 326 mp_15_ 537 rst_n DFFR_X1
X536 clk 328 mp_16_ 538 rst_n DFFR_X1
X537 clk 330 mp_17_ 539 rst_n DFFR_X1
X538 clk 332 mp_18_ 540 rst_n DFFR_X1
X539 clk 334 mp_19_ 541 rst_n DFFR_X1
X540 clk 336 mp_20_ 542 rst_n DFFR_X1
X541 clk 338 mp_21_ 543 rst_n DFFR_X1
X542 clk 340 mp_22_ 544 rst_n DFFR_X1
X543 clk 342 mp_23_ 545 rst_n DFFR_X1
X544 clk 344 mp_24_ 546 rst_n DFFR_X1
X545 clk 346 mp_25_ 547 rst_n DFFR_X1
X546 clk 348 mp_26_ 548 rst_n DFFR_X1
X547 clk 350 mp_27_ 549 rst_n DFFR_X1
X548 clk 352 mp_28_ 550 rst_n DFFR_X1
X549 clk 354 mp_29_ 551 rst_n DFFR_X1
X550 clk 356 mp_30_ 552 rst_n DFFR_X1
X551 clk 453 mp_31_ 553 rst_n DFFR_X1
X552 clk 38 acc_0_ 554 rst_n DFFR_X1
X553 clk 45 acc_1_ 555 rst_n DFFR_X1
X554 clk 52 acc_2_ 556 rst_n DFFR_X1
X555 clk 62 acc_3_ 557 rst_n DFFR_X1
X556 clk 69 acc_4_ 558 rst_n DFFR_X1
X557 clk 78 acc_5_ 559 rst_n DFFR_X1
X558 clk 86 acc_6_ 560 rst_n DFFR_X1
X559 clk 95 acc_7_ 561 rst_n DFFR_X1
X560 clk 104 acc_8_ 562 rst_n DFFR_X1
X561 clk 113 acc_9_ 563 rst_n DFFR_X1
X562 clk 122 acc_10_ 564 rst_n DFFR_X1
X563 clk 129 acc_11_ 565 rst_n DFFR_X1
X564 clk 138 acc_12_ 566 rst_n DFFR_X1
X565 clk 147 acc_13_ 567 rst_n DFFR_X1
X566 clk 156 acc_14_ 568 rst_n DFFR_X1
X567 clk 163 acc_15_ 569 rst_n DFFR_X1
X568 clk 172 acc_16_ 570 rst_n DFFR_X1
X569 clk 180 acc_17_ 571 rst_n DFFR_X1
X570 clk 189 acc_18_ 572 rst_n DFFR_X1
X571 clk 196 acc_19_ 573 rst_n DFFR_X1
X572 clk 205 acc_20_ 574 rst_n DFFR_X1
X573 clk 213 acc_21_ 575 rst_n DFFR_X1
X574 clk 222 acc_22_ 576 rst_n DFFR_X1
X575 clk 231 acc_23_ 577 rst_n DFFR_X1
X576 clk 239 acc_24_ 578 rst_n DFFR_X1
X577 clk 247 acc_25_ 579 rst_n DFFR_X1
X578 clk 254 acc_26_ 580 rst_n DFFR_X1
X579 clk 262 acc_27_ 581 rst_n DFFR_X1
X580 clk 271 acc_28_ 582 rst_n DFFR_X1
X581 clk 280 acc_29_ 583 rst_n DFFR_X1
X582 clk 288 acc_30_ 584 rst_n DFFR_X1
X583 clk 294 acc_31_ 585 rst_n DFFR_X1
X584 clk 33 count_0_ 586 rst_n DFFR_X1
X585 clk 32 count_1_ 587 rst_n DFFR_X1
X586 clk 29 count_2_ 588 rst_n DFFR_X1
X587 clk 27 count_3_ 589 rst_n DFFR_X1
X588 clk 23 count_4_ 590 rst_n DFFR_X1
X589 clk 21 count_5_ 591 rst_n DFFR_X1
X590 clk 17 state 9 rst_n DFFR_X1
V0 busy state DC 0
.ENDS _paramod_seq_multiplier_DATA_W_32

X0 add_op1_29_ 1 INV_X1
X1 add_op1_28_ 2 INV_X1
X2 add_op1_27_ 3 INV_X1
X3 add_op1_26_ 4 INV_X1
X4 add_op1_25_ 5 INV_X1
X5 add_op1_24_ 6 INV_X1
X6 add_op1_23_ 7 INV_X1
X7 add_op1_22_ 8 INV_X1
X8 add_op1_21_ 9 INV_X1
X9 add_op1_20_ 10 INV_X1
X10 add_op1_19_ 11 INV_X1
X11 add_op1_18_ 12 INV_X1
X12 add_op1_17_ 13 INV_X1
X13 add_op1_16_ 14 INV_X1
X14 add_state_0_ 15 INV_X1
X15 add_state_1_ 16 INV_X1
X16 rst_n 17 INV_X1
X17 add_op1_0_ 18 INV_X1
X18 add_op1_1_ 19 INV_X1
X19 add_op1_2_ 20 INV_X1
X20 add_op1_3_ 21 INV_X1
X21 add_op1_4_ 22 INV_X1
X22 add_op1_5_ 23 INV_X1
X23 add_op1_6_ 24 INV_X1
X24 add_op1_7_ 25 INV_X1
X25 add_op1_8_ 26 INV_X1
X26 add_op1_9_ 27 INV_X1
X27 add_op1_10_ 28 INV_X1
X28 add_op1_11_ 29 INV_X1
X29 add_op1_12_ 30 INV_X1
X30 add_op1_13_ 31 INV_X1
X31 add_op1_14_ 32 INV_X1
X32 add_op1_15_ 33 INV_X1
X33 add_op1_30_ 34 INV_X1
X34 add_op1_31_ 35 INV_X1
X35 opcode_latched_3_ 36 INV_X1
X36 add_state_0_ add_state_1_ 37 NOR2_X1
X37 38 39 37 40 NAND3_X1
X38 add_cooldown mul_cooldown 41 NOR2_X1
X39 37 40 41 42 AND3_X1
X40 pc_0_ 42 43 AND2_X1
X41 rst_n pc_0_ 42 44 OAI21_X1
X42 43 44 45 NOR2_X1
X43 pc_1_ 43 46 AND2_X1
X44 rst_n pc_1_ 43 47 OAI21_X1
X45 46 47 48 NOR2_X1
X46 pc_2_ 46 49 AND2_X1
X47 rst_n pc_2_ 46 50 OAI21_X1
X48 49 50 51 NOR2_X1
X49 rst_n pc_3_ 49 52 OAI21_X1
X50 52 49 pc_3_ 53 AOI21_X1
X51 pc_4_ 49 pc_3_ 54 AOI21_X1
X52 pc_3_ pc_4_ 49 55 AND3_X1
X53 17 54 55 56 NOR3_X1
X54 rst_n pc_5_ 55 57 OAI21_X1
X55 pc_5_ 55 58 AND2_X1
X56 57 58 59 NOR2_X1
X57 rst_n pc_6_ 58 60 OAI21_X1
X58 60 58 pc_6_ 61 AOI21_X1
X59 pc_7_ 58 pc_6_ 62 AOI21_X1
X60 pc_6_ pc_7_ 58 63 AND3_X1
X61 17 62 63 64 NOR3_X1
X62 rst_n pc_8_ 63 65 OAI21_X1
X63 pc_8_ 63 66 AND2_X1
X64 65 66 67 NOR2_X1
X65 rst_n pc_9_ 66 68 OAI21_X1
X66 68 66 pc_9_ 69 AOI21_X1
X67 pc_10_ 66 pc_9_ 70 AOI21_X1
X68 pc_9_ pc_10_ 66 71 AND3_X1
X69 17 70 71 72 NOR3_X1
X70 rst_n pc_11_ 71 73 OAI21_X1
X71 73 71 pc_11_ 74 AOI21_X1
X72 15 16 75 NOR2_X1
X73 add_op2_15_ add_op1_15_ 76 NAND2_X1
X74 add_op2_15_ add_op1_15_ 77 NOR2_X1
X75 add_op2_14_ add_op1_14_ 78 AND2_X1
X76 add_op2_14_ add_op1_14_ 79 NAND2_X1
X77 add_op2_14_ add_op1_14_ 80 XNOR2_X1
X78 add_op2_13_ add_op1_13_ 81 NAND2_X1
X79 add_op2_13_ add_op1_13_ 82 NOR2_X1
X80 add_op2_12_ add_op1_12_ 83 NAND2_X1
X81 add_op2_12_ add_op1_12_ 84 XNOR2_X1
X82 84 85 INV_X1
X83 add_op2_11_ add_op1_11_ 86 AND2_X1
X84 add_op2_11_ add_op1_11_ 87 OR2_X1
X85 add_op2_10_ add_op1_10_ 88 NAND2_X1
X86 add_op2_10_ add_op1_10_ 89 XNOR2_X1
X87 add_op2_9_ add_op1_9_ 90 AND2_X1
X88 add_op2_9_ add_op1_9_ 91 OR2_X1
X89 add_op2_8_ add_op1_8_ 92 NAND2_X1
X90 add_op2_8_ add_op1_8_ 93 XNOR2_X1
X91 add_op2_7_ add_op1_7_ 94 AND2_X1
X92 add_op2_7_ add_op1_7_ 95 OR2_X1
X93 add_op2_6_ add_op1_6_ 96 NAND2_X1
X94 add_op2_6_ add_op1_6_ 97 XNOR2_X1
X95 add_op2_5_ add_op1_5_ 98 NAND2_X1
X96 add_op2_4_ add_op1_4_ 99 AND2_X1
X97 add_op2_4_ add_op1_4_ 100 XOR2_X1
X98 100 101 INV_X1
X99 add_op2_3_ add_op1_3_ 102 NAND2_X1
X100 add_op2_3_ add_op1_3_ 103 NOR2_X1
X101 add_op2_2_ add_op1_2_ 104 AND2_X1
X102 add_op2_1_ add_op1_1_ 105 NAND2_X1
X103 add_op2_0_ add_op1_0_ 106 NAND2_X1
X104 add_op2_1_ add_op1_1_ 107 XNOR2_X1
X105 105 106 107 108 OAI21_X1
X106 add_op2_2_ add_op1_2_ 109 XOR2_X1
X107 104 108 109 110 AOI21_X1
X108 103 110 102 111 AOI21_X1
X109 101 103 110 102 112 AOI211_X1
X110 add_op2_5_ add_op1_5_ 113 XNOR2_X1
X111 113 114 INV_X1
X112 114 112 99 115 OAI21_X1
X113 98 115 116 AND2_X1
X114 96 97 116 117 OAI21_X1
X115 95 117 94 118 OAI21_X1
X116 92 93 118 119 OAI21_X1
X117 91 119 90 120 OAI21_X1
X118 88 89 120 121 OAI21_X1
X119 87 121 86 122 OAI21_X1
X120 85 87 121 86 123 OAI211_X1
X121 83 123 124 NAND2_X1
X122 81 83 123 125 AND3_X1
X123 80 82 125 126 NOR3_X1
X124 80 82 125 127 OR3_X1
X125 add_op2_15_ add_op1_15_ 78 126 128 OAI22_X1
X126 76 79 127 129 AND3_X1
X127 75 77 129 130 OAI21_X1
X128 rst_n 130 75 carry_low 131 OAI211_X1
X129 131 132 INV_X1
X130 add_op2_0_ add_op1_0_ 133 XNOR2_X1
X131 rst_n sum_low_0_ 75 134 OAI21_X1
X132 134 133 75 135 AOI21_X1
X133 106 107 136 XNOR2_X1
X134 rst_n sum_low_1_ 75 137 OAI21_X1
X135 137 136 75 138 AOI21_X1
X136 108 109 139 XNOR2_X1
X137 rst_n sum_low_2_ 75 140 OAI21_X1
X138 140 139 75 141 AOI21_X1
X139 add_op2_3_ add_op1_3_ 142 XNOR2_X1
X140 110 142 143 XNOR2_X1
X141 rst_n sum_low_3_ 75 144 OAI21_X1
X142 144 143 75 145 AOI21_X1
X143 100 111 146 XNOR2_X1
X144 rst_n sum_low_4_ 75 147 OAI21_X1
X145 147 146 75 148 AOI21_X1
X146 99 112 114 149 OR3_X1
X147 115 149 150 NAND2_X1
X148 rst_n sum_low_5_ 75 151 OAI21_X1
X149 151 150 75 152 AOI21_X1
X150 97 116 153 XNOR2_X1
X151 rst_n sum_low_6_ 75 154 OAI21_X1
X152 154 153 75 155 AOI21_X1
X153 add_op2_7_ add_op1_7_ 156 XOR2_X1
X154 117 156 157 XNOR2_X1
X155 rst_n sum_low_7_ 75 158 OAI21_X1
X156 158 157 75 159 AOI21_X1
X157 93 118 160 XNOR2_X1
X158 rst_n sum_low_8_ 75 161 OAI21_X1
X159 161 160 75 162 AOI21_X1
X160 add_op2_9_ add_op1_9_ 163 XOR2_X1
X161 119 163 164 XNOR2_X1
X162 rst_n sum_low_9_ 75 165 OAI21_X1
X163 165 164 75 166 AOI21_X1
X164 89 120 167 XNOR2_X1
X165 rst_n sum_low_10_ 75 168 OAI21_X1
X166 168 167 75 169 AOI21_X1
X167 add_op2_11_ add_op1_11_ 170 XOR2_X1
X168 121 170 171 XNOR2_X1
X169 rst_n sum_low_11_ 75 172 OAI21_X1
X170 172 171 75 173 AOI21_X1
X171 84 122 174 XNOR2_X1
X172 rst_n sum_low_12_ 75 175 OAI21_X1
X173 175 174 75 176 AOI21_X1
X174 add_op2_13_ add_op1_13_ 177 XNOR2_X1
X175 124 177 178 XOR2_X1
X176 rst_n sum_low_13_ 75 179 OAI21_X1
X177 179 178 75 180 AOI21_X1
X178 80 82 125 181 OAI21_X1
X179 127 181 182 NAND2_X1
X180 rst_n sum_low_14_ 75 183 OAI21_X1
X181 183 182 75 184 AOI21_X1
X182 add_op2_15_ add_op1_15_ 185 XNOR2_X1
X183 79 127 185 186 AND3_X1
X184 185 127 79 187 AOI21_X1
X185 186 187 188 OR2_X1
X186 rst_n sum_low_15_ 75 189 OAI21_X1
X187 189 188 75 190 AOI21_X1
X188 add_op1_22_ add_op2_22_ 191 OR2_X1
X189 add_op1_28_ add_op1_27_ 191 192 NOR3_X1
X190 add_op1_29_ add_op1_26_ add_op2_31_ add_op1_31_ 193 NOR4_X1
X191 add_op1_20_ add_op1_19_ add_op1_18_ add_op1_17_ 194 NOR4_X1
X192 add_op1_25_ add_op1_24_ add_op1_23_ add_op1_21_ 195 NOR4_X1
X193 192 193 194 195 196 NAND4_X1
X194 add_op2_27_ add_op2_26_ add_op2_25_ add_op2_24_ 197 NOR4_X1
X195 add_op1_16_ add_op2_30_ add_op2_29_ add_op2_28_ 198 NOR4_X1
X196 add_op2_18_ add_op2_17_ add_op2_16_ add_op1_30_ 199 NOR4_X1
X197 add_op2_23_ add_op2_21_ add_op2_20_ add_op2_19_ 200 NOR4_X1
X198 197 198 199 200 201 NAND4_X1
X199 196 201 202 NOR2_X1
X200 76 128 202 203 AND3_X1
X201 add_state_1_ 76 128 202 204 NAND4_X1
X202 add_state_0_ 16 205 NOR2_X1
X203 15 add_state_1_ 206 NAND2_X1
X204 add_state_0_ add_done 207 NAND2_X1
X205 204 206 207 208 NAND3_X1
X206 rst_n 208 209 AND2_X1
X207 76 128 133 202 210 NAND4_X1
X208 75 210 203 add_result_0_ 211 OAI211_X1
X209 16 add_result_0_ sum_low_0_ 205 212 AOI22_X1
X210 17 211 212 213 AOI21_X1
X211 76 128 136 202 214 NAND4_X1
X212 75 214 203 add_result_1_ 215 OAI211_X1
X213 16 add_result_1_ sum_low_1_ 205 216 AOI22_X1
X214 17 215 216 217 AOI21_X1
X215 76 128 139 202 218 NAND4_X1
X216 75 218 203 add_result_2_ 219 OAI211_X1
X217 16 add_result_2_ sum_low_2_ 205 220 AOI22_X1
X218 17 219 220 221 AOI21_X1
X219 76 128 143 202 222 NAND4_X1
X220 75 222 203 add_result_3_ 223 OAI211_X1
X221 16 add_result_3_ sum_low_3_ 205 224 AOI22_X1
X222 17 223 224 225 AOI21_X1
X223 76 128 146 202 226 NAND4_X1
X224 75 226 203 add_result_4_ 227 OAI211_X1
X225 16 add_result_4_ sum_low_4_ 205 228 AOI22_X1
X226 17 227 228 229 AOI21_X1
X227 76 128 150 202 230 NAND4_X1
X228 75 230 203 add_result_5_ 231 OAI211_X1
X229 16 add_result_5_ sum_low_5_ 205 232 AOI22_X1
X230 17 231 232 233 AOI21_X1
X231 76 128 153 202 234 NAND4_X1
X232 75 234 203 add_result_6_ 235 OAI211_X1
X233 16 add_result_6_ sum_low_6_ 205 236 AOI22_X1
X234 17 235 236 237 AOI21_X1
X235 76 128 157 202 238 NAND4_X1
X236 75 238 203 add_result_7_ 239 OAI211_X1
X237 16 add_result_7_ sum_low_7_ 205 240 AOI22_X1
X238 17 239 240 241 AOI21_X1
X239 76 128 160 202 242 NAND4_X1
X240 75 242 203 add_result_8_ 243 OAI211_X1
X241 16 add_result_8_ sum_low_8_ 205 244 AOI22_X1
X242 17 243 244 245 AOI21_X1
X243 76 128 164 202 246 NAND4_X1
X244 75 246 203 add_result_9_ 247 OAI211_X1
X245 16 add_result_9_ sum_low_9_ 205 248 AOI22_X1
X246 17 247 248 249 AOI21_X1
X247 76 128 167 202 250 NAND4_X1
X248 75 250 203 add_result_10_ 251 OAI211_X1
X249 16 add_result_10_ sum_low_10_ 205 252 AOI22_X1
X250 17 251 252 253 AOI21_X1
X251 76 128 171 202 254 NAND4_X1
X252 75 254 203 add_result_11_ 255 OAI211_X1
X253 16 add_result_11_ sum_low_11_ 205 256 AOI22_X1
X254 17 255 256 257 AOI21_X1
X255 76 128 174 202 258 NAND4_X1
X256 75 258 203 add_result_12_ 259 OAI211_X1
X257 16 add_result_12_ sum_low_12_ 205 260 AOI22_X1
X258 17 259 260 261 AOI21_X1
X259 76 128 178 202 262 NAND4_X1
X260 75 262 203 add_result_13_ 263 OAI211_X1
X261 16 add_result_13_ sum_low_13_ 205 264 AOI22_X1
X262 17 263 264 265 AOI21_X1
X263 76 128 182 202 266 NAND4_X1
X264 75 266 203 add_result_14_ 267 OAI211_X1
X265 16 add_result_14_ sum_low_14_ 205 268 AOI22_X1
X266 17 267 268 269 AOI21_X1
X267 202 187 186 77 129 270 OAI221_X1
X268 75 270 203 add_result_15_ 271 OAI211_X1
X269 16 add_result_15_ sum_low_15_ 205 272 AOI22_X1
X270 17 271 272 273 AOI21_X1
X271 add_result_16_ 204 206 274 NAND3_X1
X272 add_op1_16_ add_op2_16_ 275 NAND2_X1
X273 add_op1_16_ add_op2_16_ 276 XOR2_X1
X274 carry_low 276 277 NAND2_X1
X275 carry_low 276 278 OR2_X1
X276 205 277 278 279 NAND3_X1
X277 17 274 279 280 AOI21_X1
X278 add_result_17_ 204 206 281 NAND3_X1
X279 add_op1_17_ add_op2_17_ 282 NAND2_X1
X280 add_op1_17_ add_op2_17_ 283 NOR2_X1
X281 add_op1_17_ add_op2_17_ 284 XNOR2_X1
X282 275 277 285 AND2_X1
X283 206 284 285 286 AOI21_X1
X284 286 285 284 287 OAI21_X1
X285 17 281 287 288 AOI21_X1
X286 add_result_18_ 204 206 289 NAND3_X1
X287 add_op1_18_ add_op2_18_ 290 NAND2_X1